* Extracted by KLayout with SG13G2 LVS runset on : 20/03/2026 13:19

.SUBCKT chip_top inp_cm|ua[5] inn_cm|ua[3] V_lk|ua[2] out out$1 Vm Vm$1 Vb Vb$1
+ GND|VGND|VSS VDD|VDPWR|ua[1]|v_ref Vrefcap|inp_cm SEL1|uio_in[1] OUT|ua[0]
+ IN1 Vbias|ua[4] SEL0|uio_in[0] IN0 I_in|out in|out REQ|out|uo_out[0]
+ V_mem|inp_cm|v_mem Vfb|in|out Vm$2 Vb$2 ACK|ui_in[0] Vb$3 V_mem|v_mem
+ in|out$1 I_in|out$1 Vrefcap REQ|out|uo_out[1] ACK|ui_in[1] Vfb|in|out$1 Vm$3
+ I_in|out$2 in|out$2 REQ|out|uo_out[2] V_mem|v_mem$1 Vfb|in|out$2 Vm$4 Vb$4
+ Vrefcap$1 ACK|ui_in[2] Vb$5 V_mem|v_mem$2 in|out$3 I_in|out$3 Vrefcap$2
+ REQ|out|uo_out[3] ACK|ui_in[3] Vfb|in|out$3 Vm$5 I_in|out$4 V_mem|v_mem$3
+ in|out$4 REQ|out|uo_out[4] Vm$6 Vfb|in|out$4 Vb$6 Vrefcap$3 ACK|ui_in[4] Vb$7
+ I_in|out$5 V_mem|v_mem$4 in|out$5 Vrefcap$4 REQ|out|uo_out[5] ACK|ui_in[5]
+ Vfb|in|out$5 Vm$7 I_in|out$6 V_mem|v_mem$5 in|out$6 REQ|out|uo_out[6] Vm$8
+ Vfb|in|out$6 Vb$8 Vrefcap$5 ACK|ui_in[6] Vb$9 I_in|out$7 V_mem|v_mem$6
+ in|out$7 Vrefcap$6 ACK|ui_in[7] REQ|out|uo_out[7] Vfb|in|out$7 Vm$9
+ I_in|out$8 in|out$8 REQ|out|uio_out[5] V_mem|v_mem$7 Vfb|in|out$8 Vm$10 Vb$10
+ Vrefcap$7 ACK|uio_in[2] Vb$11 I_in|out$9 V_mem|v_mem$8 in|out$9 Vrefcap$8
+ ACK|uio_in[3] Vfb|in|out$9 Vm$11 REQ|out|uio_out[6] I_in|out$10 V_mem|v_mem$9
+ in|out$10 REQ|out|uio_out[7] Vm$12 Vfb|in|out$10 Vb$12 Vrefcap$9
+ ACK|uio_in[4] L_LO|uio_oe[4] L_LO|uio_oe[3] L_LO|uio_oe[2] L_LO|uio_oe[1]
+ L_LO|uio_oe[0] L_LO|uio_out[4] L_LO|uio_out[3] L_LO|uio_out[2]
+ L_LO|uio_out[1] L_LO|uio_out[0] L_HI|uio_oe[7] L_HI|uio_oe[6] L_HI|uio_oe[5]
M$1 GND|VGND|VSS GND|VGND|VSS GND|VGND|VSS GND|VGND|VSS sg13_lv_nmos L=0.15u
+ W=8u AS=3.92p AD=3.92p PS=23.84u PD=23.84u
M$2 GND|VGND|VSS SEL1|uio_in[1] \$59 GND|VGND|VSS sg13_lv_nmos L=0.15u W=1u
+ AS=0.49p AD=0.49p PS=2.98u PD=2.98u
M$5 OUT|ua[0] SEL1|uio_in[1] IN1 GND|VGND|VSS sg13_lv_nmos L=0.15u W=8u
+ AS=2.24p AD=2.24p PS=13.48u PD=13.48u
M$15 GND|VGND|VSS SEL0|uio_in[0] \$102 GND|VGND|VSS sg13_lv_nmos L=0.15u W=1u
+ AS=0.49p AD=0.49p PS=2.98u PD=2.98u
M$18 OUT|ua[0] SEL0|uio_in[0] IN0 GND|VGND|VSS sg13_lv_nmos L=0.15u W=8u
+ AS=2.24p AD=2.24p PS=13.48u PD=13.48u
M$27 GND|VGND|VSS \$1988 \$1988 GND|VGND|VSS sg13_lv_nmos L=0.13u W=0.3u
+ AS=0.2043375p AD=0.111p PS=1.585u PD=1.34u
M$28 GND|VGND|VSS \$1989 \$1990 GND|VGND|VSS sg13_lv_nmos L=0.13u W=0.795u
+ AS=0.2043375p AD=0.274275p PS=1.585u PD=2.28u
M$29 GND|VGND|VSS \$1991 \$1991 GND|VGND|VSS sg13_lv_nmos L=0.13u W=0.3u
+ AS=0.2043375p AD=0.111p PS=1.585u PD=1.34u
M$30 GND|VGND|VSS \$1992 \$1993 GND|VGND|VSS sg13_lv_nmos L=0.13u W=0.795u
+ AS=0.2043375p AD=0.274275p PS=1.585u PD=2.28u
M$31 GND|VGND|VSS \$1994 \$1994 GND|VGND|VSS sg13_lv_nmos L=0.13u W=0.3u
+ AS=0.2043375p AD=0.111p PS=1.585u PD=1.34u
M$32 GND|VGND|VSS \$1995 \$1996 GND|VGND|VSS sg13_lv_nmos L=0.13u W=0.795u
+ AS=0.2043375p AD=0.274275p PS=1.585u PD=2.28u
M$33 GND|VGND|VSS \$2020 \$1997 GND|VGND|VSS sg13_lv_nmos L=0.13u W=0.385u
+ AS=0.305425p AD=0.1309p PS=2.07u PD=1.45u
M$34 GND|VGND|VSS \$1998 L_LO|uio_oe[4] GND|VGND|VSS sg13_lv_nmos L=0.13u
+ W=0.88u AS=0.305425p AD=0.2992p PS=2.07u PD=2.44u
M$35 GND|VGND|VSS \$2021 \$1999 GND|VGND|VSS sg13_lv_nmos L=0.13u W=0.385u
+ AS=0.305425p AD=0.1309p PS=2.07u PD=1.45u
M$36 GND|VGND|VSS \$2000 L_LO|uio_oe[3] GND|VGND|VSS sg13_lv_nmos L=0.13u
+ W=0.88u AS=0.305425p AD=0.2992p PS=2.07u PD=2.44u
M$37 GND|VGND|VSS \$2022 \$2001 GND|VGND|VSS sg13_lv_nmos L=0.13u W=0.385u
+ AS=0.305425p AD=0.1309p PS=2.07u PD=1.45u
M$38 GND|VGND|VSS \$2002 L_LO|uio_oe[2] GND|VGND|VSS sg13_lv_nmos L=0.13u
+ W=0.88u AS=0.305425p AD=0.2992p PS=2.07u PD=2.44u
M$39 GND|VGND|VSS \$2023 \$2003 GND|VGND|VSS sg13_lv_nmos L=0.13u W=0.385u
+ AS=0.305425p AD=0.1309p PS=2.07u PD=1.45u
M$40 GND|VGND|VSS \$2004 L_LO|uio_oe[1] GND|VGND|VSS sg13_lv_nmos L=0.13u
+ W=0.88u AS=0.305425p AD=0.2992p PS=2.07u PD=2.44u
M$41 GND|VGND|VSS \$2024 \$2005 GND|VGND|VSS sg13_lv_nmos L=0.13u W=0.385u
+ AS=0.305425p AD=0.1309p PS=2.07u PD=1.45u
M$42 GND|VGND|VSS \$2006 L_LO|uio_oe[0] GND|VGND|VSS sg13_lv_nmos L=0.13u
+ W=0.88u AS=0.305425p AD=0.2992p PS=2.07u PD=2.44u
M$43 GND|VGND|VSS \$2025 \$2007 GND|VGND|VSS sg13_lv_nmos L=0.13u W=0.385u
+ AS=0.305425p AD=0.1309p PS=2.07u PD=1.45u
M$44 GND|VGND|VSS \$2008 L_LO|uio_out[4] GND|VGND|VSS sg13_lv_nmos L=0.13u
+ W=0.88u AS=0.305425p AD=0.2992p PS=2.07u PD=2.44u
M$45 GND|VGND|VSS \$2026 \$2009 GND|VGND|VSS sg13_lv_nmos L=0.13u W=0.385u
+ AS=0.305425p AD=0.1309p PS=2.07u PD=1.45u
M$46 GND|VGND|VSS \$2010 L_LO|uio_out[3] GND|VGND|VSS sg13_lv_nmos L=0.13u
+ W=0.88u AS=0.305425p AD=0.2992p PS=2.07u PD=2.44u
M$47 GND|VGND|VSS \$2027 \$2011 GND|VGND|VSS sg13_lv_nmos L=0.13u W=0.385u
+ AS=0.305425p AD=0.1309p PS=2.07u PD=1.45u
M$48 GND|VGND|VSS \$2012 L_LO|uio_out[2] GND|VGND|VSS sg13_lv_nmos L=0.13u
+ W=0.88u AS=0.305425p AD=0.2992p PS=2.07u PD=2.44u
M$49 GND|VGND|VSS \$2028 \$2013 GND|VGND|VSS sg13_lv_nmos L=0.13u W=0.385u
+ AS=0.305425p AD=0.1309p PS=2.07u PD=1.45u
M$50 GND|VGND|VSS \$2014 L_LO|uio_out[1] GND|VGND|VSS sg13_lv_nmos L=0.13u
+ W=0.88u AS=0.305425p AD=0.2992p PS=2.07u PD=2.44u
M$51 GND|VGND|VSS \$2029 \$2015 GND|VGND|VSS sg13_lv_nmos L=0.13u W=0.385u
+ AS=0.305425p AD=0.1309p PS=2.07u PD=1.45u
M$52 GND|VGND|VSS \$2016 L_LO|uio_out[0] GND|VGND|VSS sg13_lv_nmos L=0.13u
+ W=0.88u AS=0.305425p AD=0.2992p PS=2.07u PD=2.44u
M$53 GND|VGND|VSS GND|VGND|VSS GND|VGND|VSS GND|VGND|VSS sg13_hv_nmos L=1u
+ W=208u AS=47.32p AD=47.32p PS=307.32u PD=307.32u
M$55 GND|VGND|VSS Vm out GND|VGND|VSS sg13_hv_nmos L=1u W=16u AS=3.04p AD=3.04p
+ PS=19.04u PD=19.04u
M$57 GND|VGND|VSS Vm Vm GND|VGND|VSS sg13_hv_nmos L=1u W=16u AS=3.04p AD=3.04p
+ PS=19.04u PD=19.04u
M$67 GND|VGND|VSS Vm$1 out$1 GND|VGND|VSS sg13_hv_nmos L=1u W=16u AS=3.04p
+ AD=3.04p PS=19.04u PD=19.04u
M$69 GND|VGND|VSS Vm$1 Vm$1 GND|VGND|VSS sg13_hv_nmos L=1u W=16u AS=3.04p
+ AD=3.04p PS=19.04u PD=19.04u
M$101 GND|VGND|VSS GND|VGND|VSS GND|VGND|VSS GND|VGND|VSS sg13_hv_nmos L=3u
+ W=220u AS=58.3p AD=58.3p PS=423.28u PD=423.28u
M$102 GND|VGND|VSS GND|VGND|VSS GND|VGND|VSS GND|VGND|VSS sg13_hv_nmos L=4u
+ W=88u AS=16.72p AD=16.72p PS=154.88u PD=154.88u
M$115 GND|VGND|VSS Vm$2 I_in|out GND|VGND|VSS sg13_hv_nmos L=1u W=16u AS=3.04p
+ AD=3.04p PS=19.04u PD=19.04u
M$117 GND|VGND|VSS Vm$2 Vm$2 GND|VGND|VSS sg13_hv_nmos L=1u W=16u AS=3.04p
+ AD=3.04p PS=19.04u PD=19.04u
M$125 GND|VGND|VSS GND|VGND|VSS GND|VGND|VSS GND|VGND|VSS sg13_hv_nmos L=2u
+ W=154u AS=35.86p AD=32.56p PS=269.72u PD=241.12u
M$144 GND|VGND|VSS V_lk|ua[2] V_mem|inp_cm|v_mem GND|VGND|VSS sg13_hv_nmos L=4u
+ W=16u AS=3.04p AD=3.04p PS=19.04u PD=19.04u
M$150 GND|VGND|VSS V_mem|inp_cm|v_mem \$219 GND|VGND|VSS sg13_hv_nmos L=2u W=2u
+ AS=0.38p AD=0.38p PS=2.76u PD=2.76u
M$151 \$219 V_mem|inp_cm|v_mem \$220 GND|VGND|VSS sg13_hv_nmos L=2u W=2u
+ AS=0.38p AD=0.38p PS=2.76u PD=2.76u
M$152 \$220 V_mem|inp_cm|v_mem \$221 GND|VGND|VSS sg13_hv_nmos L=2u W=2u
+ AS=0.38p AD=0.38p PS=2.76u PD=2.76u
M$153 \$221 V_mem|inp_cm|v_mem Vfb|in|out GND|VGND|VSS sg13_hv_nmos L=2u W=2u
+ AS=0.38p AD=0.38p PS=2.76u PD=2.76u
M$154 Vfb|in|out GND|VGND|VSS GND|VGND|VSS GND|VGND|VSS sg13_hv_nmos L=2u W=2u
+ AS=0.38p AD=0.68p PS=2.76u PD=5.36u
M$155 GND|VGND|VSS Vfb|in|out in|out GND|VGND|VSS sg13_hv_nmos L=0.5u W=4u
+ AS=1.36p AD=1.36p PS=8.68u PD=8.68u
M$156 GND|VGND|VSS in|out REQ|out|uo_out[0] GND|VGND|VSS sg13_hv_nmos L=0.5u
+ W=4u AS=1.36p AD=1.36p PS=8.68u PD=8.68u
M$158 GND|VGND|VSS VDD|VDPWR|ua[1]|v_ref \$223 GND|VGND|VSS sg13_hv_nmos L=4u
+ W=16u AS=3.04p AD=3.04p PS=19.04u PD=19.04u
M$211 GND|VGND|VSS Vrefcap V_mem|v_mem GND|VGND|VSS sg13_hv_nmos L=0.5u W=1u
+ AS=0.34p AD=0.34p PS=2.68u PD=2.68u
M$212 GND|VGND|VSS Vrefcap|inp_cm V_mem|inp_cm|v_mem GND|VGND|VSS sg13_hv_nmos
+ L=0.5u W=1u AS=0.34p AD=0.34p PS=2.68u PD=2.68u
M$213 \$442 REQ|out|uo_out[1] Vrefcap GND|VGND|VSS sg13_hv_nmos L=0.5u W=1u
+ AS=0.34p AD=0.34p PS=2.68u PD=2.68u
M$214 \$223 REQ|out|uo_out[0] Vrefcap|inp_cm GND|VGND|VSS sg13_hv_nmos L=0.5u
+ W=1u AS=0.34p AD=0.34p PS=2.68u PD=2.68u
M$216 GND|VGND|VSS V_lk|ua[2] V_mem|v_mem GND|VGND|VSS sg13_hv_nmos L=4u W=16u
+ AS=3.04p AD=3.04p PS=19.04u PD=19.04u
M$228 GND|VGND|VSS VDD|VDPWR|ua[1]|v_ref \$442 GND|VGND|VSS sg13_hv_nmos L=4u
+ W=16u AS=3.04p AD=3.04p PS=19.04u PD=19.04u
M$235 GND|VGND|VSS Vm$3 Vm$3 GND|VGND|VSS sg13_hv_nmos L=1u W=16u AS=3.04p
+ AD=3.04p PS=19.04u PD=19.04u
M$237 GND|VGND|VSS Vm$3 I_in|out$1 GND|VGND|VSS sg13_hv_nmos L=1u W=16u
+ AS=3.04p AD=3.04p PS=19.04u PD=19.04u
M$246 GND|VGND|VSS V_mem|v_mem \$474 GND|VGND|VSS sg13_hv_nmos L=2u W=2u
+ AS=0.38p AD=0.38p PS=2.76u PD=2.76u
M$247 \$474 V_mem|v_mem \$475 GND|VGND|VSS sg13_hv_nmos L=2u W=2u AS=0.38p
+ AD=0.38p PS=2.76u PD=2.76u
M$248 \$475 V_mem|v_mem \$476 GND|VGND|VSS sg13_hv_nmos L=2u W=2u AS=0.38p
+ AD=0.38p PS=2.76u PD=2.76u
M$249 \$476 V_mem|v_mem Vfb|in|out$1 GND|VGND|VSS sg13_hv_nmos L=2u W=2u
+ AS=0.38p AD=0.38p PS=2.76u PD=2.76u
M$250 Vfb|in|out$1 GND|VGND|VSS GND|VGND|VSS GND|VGND|VSS sg13_hv_nmos L=2u
+ W=2u AS=0.38p AD=0.68p PS=2.76u PD=5.36u
M$251 GND|VGND|VSS Vfb|in|out$1 in|out$1 GND|VGND|VSS sg13_hv_nmos L=0.5u W=4u
+ AS=1.36p AD=1.36p PS=8.68u PD=8.68u
M$252 GND|VGND|VSS in|out$1 REQ|out|uo_out[1] GND|VGND|VSS sg13_hv_nmos L=0.5u
+ W=4u AS=1.36p AD=1.36p PS=8.68u PD=8.68u
M$315 GND|VGND|VSS Vm$4 I_in|out$2 GND|VGND|VSS sg13_hv_nmos L=1u W=16u
+ AS=3.04p AD=3.04p PS=19.04u PD=19.04u
M$317 GND|VGND|VSS Vm$4 Vm$4 GND|VGND|VSS sg13_hv_nmos L=1u W=16u AS=3.04p
+ AD=3.04p PS=19.04u PD=19.04u
M$344 GND|VGND|VSS V_lk|ua[2] V_mem|v_mem$1 GND|VGND|VSS sg13_hv_nmos L=4u
+ W=16u AS=3.04p AD=3.04p PS=19.04u PD=19.04u
M$350 GND|VGND|VSS V_mem|v_mem$1 \$547 GND|VGND|VSS sg13_hv_nmos L=2u W=2u
+ AS=0.38p AD=0.38p PS=2.76u PD=2.76u
M$351 \$547 V_mem|v_mem$1 \$548 GND|VGND|VSS sg13_hv_nmos L=2u W=2u AS=0.38p
+ AD=0.38p PS=2.76u PD=2.76u
M$352 \$548 V_mem|v_mem$1 \$549 GND|VGND|VSS sg13_hv_nmos L=2u W=2u AS=0.38p
+ AD=0.38p PS=2.76u PD=2.76u
M$353 \$549 V_mem|v_mem$1 Vfb|in|out$2 GND|VGND|VSS sg13_hv_nmos L=2u W=2u
+ AS=0.38p AD=0.38p PS=2.76u PD=2.76u
M$354 Vfb|in|out$2 GND|VGND|VSS GND|VGND|VSS GND|VGND|VSS sg13_hv_nmos L=2u
+ W=2u AS=0.38p AD=0.68p PS=2.76u PD=5.36u
M$355 GND|VGND|VSS Vfb|in|out$2 in|out$2 GND|VGND|VSS sg13_hv_nmos L=0.5u W=4u
+ AS=1.36p AD=1.36p PS=8.68u PD=8.68u
M$356 GND|VGND|VSS in|out$2 REQ|out|uo_out[2] GND|VGND|VSS sg13_hv_nmos L=0.5u
+ W=4u AS=1.36p AD=1.36p PS=8.68u PD=8.68u
M$358 GND|VGND|VSS VDD|VDPWR|ua[1]|v_ref \$551 GND|VGND|VSS sg13_hv_nmos L=4u
+ W=16u AS=3.04p AD=3.04p PS=19.04u PD=19.04u
M$411 GND|VGND|VSS Vrefcap$2 V_mem|v_mem$2 GND|VGND|VSS sg13_hv_nmos L=0.5u
+ W=1u AS=0.34p AD=0.34p PS=2.68u PD=2.68u
M$412 GND|VGND|VSS Vrefcap$1 V_mem|v_mem$1 GND|VGND|VSS sg13_hv_nmos L=0.5u
+ W=1u AS=0.34p AD=0.34p PS=2.68u PD=2.68u
M$413 \$551 REQ|out|uo_out[2] Vrefcap$1 GND|VGND|VSS sg13_hv_nmos L=0.5u W=1u
+ AS=0.34p AD=0.34p PS=2.68u PD=2.68u
M$414 \$764 REQ|out|uo_out[3] Vrefcap$2 GND|VGND|VSS sg13_hv_nmos L=0.5u W=1u
+ AS=0.34p AD=0.34p PS=2.68u PD=2.68u
M$416 GND|VGND|VSS V_lk|ua[2] V_mem|v_mem$2 GND|VGND|VSS sg13_hv_nmos L=4u
+ W=16u AS=3.04p AD=3.04p PS=19.04u PD=19.04u
M$428 GND|VGND|VSS VDD|VDPWR|ua[1]|v_ref \$764 GND|VGND|VSS sg13_hv_nmos L=4u
+ W=16u AS=3.04p AD=3.04p PS=19.04u PD=19.04u
M$435 GND|VGND|VSS Vm$5 Vm$5 GND|VGND|VSS sg13_hv_nmos L=1u W=16u AS=3.04p
+ AD=3.04p PS=19.04u PD=19.04u
M$437 GND|VGND|VSS Vm$5 I_in|out$3 GND|VGND|VSS sg13_hv_nmos L=1u W=16u
+ AS=3.04p AD=3.04p PS=19.04u PD=19.04u
M$446 GND|VGND|VSS V_mem|v_mem$2 \$797 GND|VGND|VSS sg13_hv_nmos L=2u W=2u
+ AS=0.38p AD=0.38p PS=2.76u PD=2.76u
M$447 \$797 V_mem|v_mem$2 \$798 GND|VGND|VSS sg13_hv_nmos L=2u W=2u AS=0.38p
+ AD=0.38p PS=2.76u PD=2.76u
M$448 \$798 V_mem|v_mem$2 \$799 GND|VGND|VSS sg13_hv_nmos L=2u W=2u AS=0.38p
+ AD=0.38p PS=2.76u PD=2.76u
M$449 \$799 V_mem|v_mem$2 Vfb|in|out$3 GND|VGND|VSS sg13_hv_nmos L=2u W=2u
+ AS=0.38p AD=0.38p PS=2.76u PD=2.76u
M$450 Vfb|in|out$3 GND|VGND|VSS GND|VGND|VSS GND|VGND|VSS sg13_hv_nmos L=2u
+ W=2u AS=0.38p AD=0.68p PS=2.76u PD=5.36u
M$451 GND|VGND|VSS Vfb|in|out$3 in|out$3 GND|VGND|VSS sg13_hv_nmos L=0.5u W=4u
+ AS=1.36p AD=1.36p PS=8.68u PD=8.68u
M$452 GND|VGND|VSS in|out$3 REQ|out|uo_out[3] GND|VGND|VSS sg13_hv_nmos L=0.5u
+ W=4u AS=1.36p AD=1.36p PS=8.68u PD=8.68u
M$515 GND|VGND|VSS Vm$6 I_in|out$4 GND|VGND|VSS sg13_hv_nmos L=1u W=16u
+ AS=3.04p AD=3.04p PS=19.04u PD=19.04u
M$517 GND|VGND|VSS Vm$6 Vm$6 GND|VGND|VSS sg13_hv_nmos L=1u W=16u AS=3.04p
+ AD=3.04p PS=19.04u PD=19.04u
M$544 GND|VGND|VSS V_lk|ua[2] V_mem|v_mem$3 GND|VGND|VSS sg13_hv_nmos L=4u
+ W=16u AS=3.04p AD=3.04p PS=19.04u PD=19.04u
M$550 GND|VGND|VSS V_mem|v_mem$3 \$872 GND|VGND|VSS sg13_hv_nmos L=2u W=2u
+ AS=0.38p AD=0.38p PS=2.76u PD=2.76u
M$551 \$872 V_mem|v_mem$3 \$873 GND|VGND|VSS sg13_hv_nmos L=2u W=2u AS=0.38p
+ AD=0.38p PS=2.76u PD=2.76u
M$552 \$873 V_mem|v_mem$3 \$874 GND|VGND|VSS sg13_hv_nmos L=2u W=2u AS=0.38p
+ AD=0.38p PS=2.76u PD=2.76u
M$553 \$874 V_mem|v_mem$3 Vfb|in|out$4 GND|VGND|VSS sg13_hv_nmos L=2u W=2u
+ AS=0.38p AD=0.38p PS=2.76u PD=2.76u
M$554 Vfb|in|out$4 GND|VGND|VSS GND|VGND|VSS GND|VGND|VSS sg13_hv_nmos L=2u
+ W=2u AS=0.38p AD=0.68p PS=2.76u PD=5.36u
M$555 GND|VGND|VSS Vfb|in|out$4 in|out$4 GND|VGND|VSS sg13_hv_nmos L=0.5u W=4u
+ AS=1.36p AD=1.36p PS=8.68u PD=8.68u
M$556 GND|VGND|VSS in|out$4 REQ|out|uo_out[4] GND|VGND|VSS sg13_hv_nmos L=0.5u
+ W=4u AS=1.36p AD=1.36p PS=8.68u PD=8.68u
M$558 GND|VGND|VSS VDD|VDPWR|ua[1]|v_ref \$857 GND|VGND|VSS sg13_hv_nmos L=4u
+ W=16u AS=3.04p AD=3.04p PS=19.04u PD=19.04u
M$611 GND|VGND|VSS Vrefcap$4 V_mem|v_mem$4 GND|VGND|VSS sg13_hv_nmos L=0.5u
+ W=1u AS=0.34p AD=0.34p PS=2.68u PD=2.68u
M$612 GND|VGND|VSS Vrefcap$3 V_mem|v_mem$3 GND|VGND|VSS sg13_hv_nmos L=0.5u
+ W=1u AS=0.34p AD=0.34p PS=2.68u PD=2.68u
M$613 \$857 REQ|out|uo_out[4] Vrefcap$3 GND|VGND|VSS sg13_hv_nmos L=0.5u W=1u
+ AS=0.34p AD=0.34p PS=2.68u PD=2.68u
M$614 \$1088 REQ|out|uo_out[5] Vrefcap$4 GND|VGND|VSS sg13_hv_nmos L=0.5u W=1u
+ AS=0.34p AD=0.34p PS=2.68u PD=2.68u
M$616 GND|VGND|VSS V_lk|ua[2] V_mem|v_mem$4 GND|VGND|VSS sg13_hv_nmos L=4u
+ W=16u AS=3.04p AD=3.04p PS=19.04u PD=19.04u
M$628 GND|VGND|VSS VDD|VDPWR|ua[1]|v_ref \$1088 GND|VGND|VSS sg13_hv_nmos L=4u
+ W=16u AS=3.04p AD=3.04p PS=19.04u PD=19.04u
M$635 GND|VGND|VSS Vm$7 Vm$7 GND|VGND|VSS sg13_hv_nmos L=1u W=16u AS=3.04p
+ AD=3.04p PS=19.04u PD=19.04u
M$637 GND|VGND|VSS Vm$7 I_in|out$5 GND|VGND|VSS sg13_hv_nmos L=1u W=16u
+ AS=3.04p AD=3.04p PS=19.04u PD=19.04u
M$646 GND|VGND|VSS V_mem|v_mem$4 \$1112 GND|VGND|VSS sg13_hv_nmos L=2u W=2u
+ AS=0.38p AD=0.38p PS=2.76u PD=2.76u
M$647 \$1112 V_mem|v_mem$4 \$1113 GND|VGND|VSS sg13_hv_nmos L=2u W=2u AS=0.38p
+ AD=0.38p PS=2.76u PD=2.76u
M$648 \$1113 V_mem|v_mem$4 \$1114 GND|VGND|VSS sg13_hv_nmos L=2u W=2u AS=0.38p
+ AD=0.38p PS=2.76u PD=2.76u
M$649 \$1114 V_mem|v_mem$4 Vfb|in|out$5 GND|VGND|VSS sg13_hv_nmos L=2u W=2u
+ AS=0.38p AD=0.38p PS=2.76u PD=2.76u
M$650 Vfb|in|out$5 GND|VGND|VSS GND|VGND|VSS GND|VGND|VSS sg13_hv_nmos L=2u
+ W=2u AS=0.38p AD=0.68p PS=2.76u PD=5.36u
M$651 GND|VGND|VSS Vfb|in|out$5 in|out$5 GND|VGND|VSS sg13_hv_nmos L=0.5u W=4u
+ AS=1.36p AD=1.36p PS=8.68u PD=8.68u
M$652 GND|VGND|VSS in|out$5 REQ|out|uo_out[5] GND|VGND|VSS sg13_hv_nmos L=0.5u
+ W=4u AS=1.36p AD=1.36p PS=8.68u PD=8.68u
M$715 GND|VGND|VSS Vm$8 I_in|out$6 GND|VGND|VSS sg13_hv_nmos L=1u W=16u
+ AS=3.04p AD=3.04p PS=19.04u PD=19.04u
M$717 GND|VGND|VSS Vm$8 Vm$8 GND|VGND|VSS sg13_hv_nmos L=1u W=16u AS=3.04p
+ AD=3.04p PS=19.04u PD=19.04u
M$744 GND|VGND|VSS V_lk|ua[2] V_mem|v_mem$5 GND|VGND|VSS sg13_hv_nmos L=4u
+ W=16u AS=3.04p AD=3.04p PS=19.04u PD=19.04u
M$750 GND|VGND|VSS V_mem|v_mem$5 \$1195 GND|VGND|VSS sg13_hv_nmos L=2u W=2u
+ AS=0.38p AD=0.38p PS=2.76u PD=2.76u
M$751 \$1195 V_mem|v_mem$5 \$1196 GND|VGND|VSS sg13_hv_nmos L=2u W=2u AS=0.38p
+ AD=0.38p PS=2.76u PD=2.76u
M$752 \$1196 V_mem|v_mem$5 \$1197 GND|VGND|VSS sg13_hv_nmos L=2u W=2u AS=0.38p
+ AD=0.38p PS=2.76u PD=2.76u
M$753 \$1197 V_mem|v_mem$5 Vfb|in|out$6 GND|VGND|VSS sg13_hv_nmos L=2u W=2u
+ AS=0.38p AD=0.38p PS=2.76u PD=2.76u
M$754 Vfb|in|out$6 GND|VGND|VSS GND|VGND|VSS GND|VGND|VSS sg13_hv_nmos L=2u
+ W=2u AS=0.38p AD=0.68p PS=2.76u PD=5.36u
M$755 GND|VGND|VSS Vfb|in|out$6 in|out$6 GND|VGND|VSS sg13_hv_nmos L=0.5u W=4u
+ AS=1.36p AD=1.36p PS=8.68u PD=8.68u
M$756 GND|VGND|VSS in|out$6 REQ|out|uo_out[6] GND|VGND|VSS sg13_hv_nmos L=0.5u
+ W=4u AS=1.36p AD=1.36p PS=8.68u PD=8.68u
M$758 GND|VGND|VSS VDD|VDPWR|ua[1]|v_ref \$1186 GND|VGND|VSS sg13_hv_nmos L=4u
+ W=16u AS=3.04p AD=3.04p PS=19.04u PD=19.04u
M$811 GND|VGND|VSS Vrefcap$5 V_mem|v_mem$5 GND|VGND|VSS sg13_hv_nmos L=0.5u
+ W=1u AS=0.34p AD=0.34p PS=2.68u PD=2.68u
M$812 GND|VGND|VSS Vrefcap$6 V_mem|v_mem$6 GND|VGND|VSS sg13_hv_nmos L=0.5u
+ W=1u AS=0.34p AD=0.34p PS=2.68u PD=2.68u
M$813 \$1411 REQ|out|uo_out[7] Vrefcap$6 GND|VGND|VSS sg13_hv_nmos L=0.5u W=1u
+ AS=0.34p AD=0.34p PS=2.68u PD=2.68u
M$814 \$1186 REQ|out|uo_out[6] Vrefcap$5 GND|VGND|VSS sg13_hv_nmos L=0.5u W=1u
+ AS=0.34p AD=0.34p PS=2.68u PD=2.68u
M$816 GND|VGND|VSS V_lk|ua[2] V_mem|v_mem$6 GND|VGND|VSS sg13_hv_nmos L=4u
+ W=16u AS=3.04p AD=3.04p PS=19.04u PD=19.04u
M$828 GND|VGND|VSS VDD|VDPWR|ua[1]|v_ref \$1411 GND|VGND|VSS sg13_hv_nmos L=4u
+ W=16u AS=3.04p AD=3.04p PS=19.04u PD=19.04u
M$835 GND|VGND|VSS Vm$9 Vm$9 GND|VGND|VSS sg13_hv_nmos L=1u W=16u AS=3.04p
+ AD=3.04p PS=19.04u PD=19.04u
M$837 GND|VGND|VSS Vm$9 I_in|out$7 GND|VGND|VSS sg13_hv_nmos L=1u W=16u
+ AS=3.04p AD=3.04p PS=19.04u PD=19.04u
M$846 GND|VGND|VSS V_mem|v_mem$6 \$1435 GND|VGND|VSS sg13_hv_nmos L=2u W=2u
+ AS=0.38p AD=0.38p PS=2.76u PD=2.76u
M$847 \$1435 V_mem|v_mem$6 \$1436 GND|VGND|VSS sg13_hv_nmos L=2u W=2u AS=0.38p
+ AD=0.38p PS=2.76u PD=2.76u
M$848 \$1436 V_mem|v_mem$6 \$1437 GND|VGND|VSS sg13_hv_nmos L=2u W=2u AS=0.38p
+ AD=0.38p PS=2.76u PD=2.76u
M$849 \$1437 V_mem|v_mem$6 Vfb|in|out$7 GND|VGND|VSS sg13_hv_nmos L=2u W=2u
+ AS=0.38p AD=0.38p PS=2.76u PD=2.76u
M$850 Vfb|in|out$7 GND|VGND|VSS GND|VGND|VSS GND|VGND|VSS sg13_hv_nmos L=2u
+ W=2u AS=0.38p AD=0.68p PS=2.76u PD=5.36u
M$851 GND|VGND|VSS Vfb|in|out$7 in|out$7 GND|VGND|VSS sg13_hv_nmos L=0.5u W=4u
+ AS=1.36p AD=1.36p PS=8.68u PD=8.68u
M$852 GND|VGND|VSS in|out$7 REQ|out|uo_out[7] GND|VGND|VSS sg13_hv_nmos L=0.5u
+ W=4u AS=1.36p AD=1.36p PS=8.68u PD=8.68u
M$915 GND|VGND|VSS Vm$10 I_in|out$8 GND|VGND|VSS sg13_hv_nmos L=1u W=16u
+ AS=3.04p AD=3.04p PS=19.04u PD=19.04u
M$917 GND|VGND|VSS Vm$10 Vm$10 GND|VGND|VSS sg13_hv_nmos L=1u W=16u AS=3.04p
+ AD=3.04p PS=19.04u PD=19.04u
M$944 GND|VGND|VSS V_lk|ua[2] V_mem|v_mem$7 GND|VGND|VSS sg13_hv_nmos L=4u
+ W=16u AS=3.04p AD=3.04p PS=19.04u PD=19.04u
M$950 GND|VGND|VSS V_mem|v_mem$7 \$1510 GND|VGND|VSS sg13_hv_nmos L=2u W=2u
+ AS=0.38p AD=0.38p PS=2.76u PD=2.76u
M$951 \$1510 V_mem|v_mem$7 \$1511 GND|VGND|VSS sg13_hv_nmos L=2u W=2u AS=0.38p
+ AD=0.38p PS=2.76u PD=2.76u
M$952 \$1511 V_mem|v_mem$7 \$1512 GND|VGND|VSS sg13_hv_nmos L=2u W=2u AS=0.38p
+ AD=0.38p PS=2.76u PD=2.76u
M$953 \$1512 V_mem|v_mem$7 Vfb|in|out$8 GND|VGND|VSS sg13_hv_nmos L=2u W=2u
+ AS=0.38p AD=0.38p PS=2.76u PD=2.76u
M$954 Vfb|in|out$8 GND|VGND|VSS GND|VGND|VSS GND|VGND|VSS sg13_hv_nmos L=2u
+ W=2u AS=0.38p AD=0.68p PS=2.76u PD=5.36u
M$955 GND|VGND|VSS Vfb|in|out$8 in|out$8 GND|VGND|VSS sg13_hv_nmos L=0.5u W=4u
+ AS=1.36p AD=1.36p PS=8.68u PD=8.68u
M$956 GND|VGND|VSS in|out$8 REQ|out|uio_out[5] GND|VGND|VSS sg13_hv_nmos L=0.5u
+ W=4u AS=1.36p AD=1.36p PS=8.68u PD=8.68u
M$958 GND|VGND|VSS VDD|VDPWR|ua[1]|v_ref \$1514 GND|VGND|VSS sg13_hv_nmos L=4u
+ W=16u AS=3.04p AD=3.04p PS=19.04u PD=19.04u
M$1011 GND|VGND|VSS Vrefcap$8 V_mem|v_mem$8 GND|VGND|VSS sg13_hv_nmos L=0.5u
+ W=1u AS=0.34p AD=0.34p PS=2.68u PD=2.68u
M$1012 GND|VGND|VSS Vrefcap$7 V_mem|v_mem$7 GND|VGND|VSS sg13_hv_nmos L=0.5u
+ W=1u AS=0.34p AD=0.34p PS=2.68u PD=2.68u
M$1013 \$1734 REQ|out|uio_out[6] Vrefcap$8 GND|VGND|VSS sg13_hv_nmos L=0.5u
+ W=1u AS=0.34p AD=0.34p PS=2.68u PD=2.68u
M$1014 \$1514 REQ|out|uio_out[5] Vrefcap$7 GND|VGND|VSS sg13_hv_nmos L=0.5u
+ W=1u AS=0.34p AD=0.34p PS=2.68u PD=2.68u
M$1016 GND|VGND|VSS V_lk|ua[2] V_mem|v_mem$8 GND|VGND|VSS sg13_hv_nmos L=4u
+ W=16u AS=3.04p AD=3.04p PS=19.04u PD=19.04u
M$1028 GND|VGND|VSS VDD|VDPWR|ua[1]|v_ref \$1734 GND|VGND|VSS sg13_hv_nmos L=4u
+ W=16u AS=3.04p AD=3.04p PS=19.04u PD=19.04u
M$1035 GND|VGND|VSS Vm$11 Vm$11 GND|VGND|VSS sg13_hv_nmos L=1u W=16u AS=3.04p
+ AD=3.04p PS=19.04u PD=19.04u
M$1037 GND|VGND|VSS Vm$11 I_in|out$9 GND|VGND|VSS sg13_hv_nmos L=1u W=16u
+ AS=3.04p AD=3.04p PS=19.04u PD=19.04u
M$1046 GND|VGND|VSS V_mem|v_mem$8 \$1758 GND|VGND|VSS sg13_hv_nmos L=2u W=2u
+ AS=0.38p AD=0.38p PS=2.76u PD=2.76u
M$1047 \$1758 V_mem|v_mem$8 \$1759 GND|VGND|VSS sg13_hv_nmos L=2u W=2u AS=0.38p
+ AD=0.38p PS=2.76u PD=2.76u
M$1048 \$1759 V_mem|v_mem$8 \$1760 GND|VGND|VSS sg13_hv_nmos L=2u W=2u AS=0.38p
+ AD=0.38p PS=2.76u PD=2.76u
M$1049 \$1760 V_mem|v_mem$8 Vfb|in|out$9 GND|VGND|VSS sg13_hv_nmos L=2u W=2u
+ AS=0.38p AD=0.38p PS=2.76u PD=2.76u
M$1050 Vfb|in|out$9 GND|VGND|VSS GND|VGND|VSS GND|VGND|VSS sg13_hv_nmos L=2u
+ W=2u AS=0.38p AD=0.68p PS=2.76u PD=5.36u
M$1051 GND|VGND|VSS Vfb|in|out$9 in|out$9 GND|VGND|VSS sg13_hv_nmos L=0.5u W=4u
+ AS=1.36p AD=1.36p PS=8.68u PD=8.68u
M$1052 GND|VGND|VSS in|out$9 REQ|out|uio_out[6] GND|VGND|VSS sg13_hv_nmos
+ L=0.5u W=4u AS=1.36p AD=1.36p PS=8.68u PD=8.68u
M$1115 GND|VGND|VSS Vm$12 I_in|out$10 GND|VGND|VSS sg13_hv_nmos L=1u W=16u
+ AS=3.04p AD=3.04p PS=19.04u PD=19.04u
M$1117 GND|VGND|VSS Vm$12 Vm$12 GND|VGND|VSS sg13_hv_nmos L=1u W=16u AS=3.04p
+ AD=3.04p PS=19.04u PD=19.04u
M$1144 GND|VGND|VSS V_lk|ua[2] V_mem|v_mem$9 GND|VGND|VSS sg13_hv_nmos L=4u
+ W=16u AS=3.04p AD=3.04p PS=19.04u PD=19.04u
M$1150 GND|VGND|VSS V_mem|v_mem$9 \$1841 GND|VGND|VSS sg13_hv_nmos L=2u W=2u
+ AS=0.38p AD=0.38p PS=2.76u PD=2.76u
M$1151 \$1841 V_mem|v_mem$9 \$1842 GND|VGND|VSS sg13_hv_nmos L=2u W=2u AS=0.38p
+ AD=0.38p PS=2.76u PD=2.76u
M$1152 \$1842 V_mem|v_mem$9 \$1843 GND|VGND|VSS sg13_hv_nmos L=2u W=2u AS=0.38p
+ AD=0.38p PS=2.76u PD=2.76u
M$1153 \$1843 V_mem|v_mem$9 Vfb|in|out$10 GND|VGND|VSS sg13_hv_nmos L=2u W=2u
+ AS=0.38p AD=0.38p PS=2.76u PD=2.76u
M$1154 Vfb|in|out$10 GND|VGND|VSS GND|VGND|VSS GND|VGND|VSS sg13_hv_nmos L=2u
+ W=2u AS=0.38p AD=0.68p PS=2.76u PD=5.36u
M$1155 GND|VGND|VSS Vfb|in|out$10 in|out$10 GND|VGND|VSS sg13_hv_nmos L=0.5u
+ W=4u AS=1.36p AD=1.36p PS=8.68u PD=8.68u
M$1156 GND|VGND|VSS in|out$10 REQ|out|uio_out[7] GND|VGND|VSS sg13_hv_nmos
+ L=0.5u W=4u AS=1.36p AD=1.36p PS=8.68u PD=8.68u
M$1158 GND|VGND|VSS VDD|VDPWR|ua[1]|v_ref \$1832 GND|VGND|VSS sg13_hv_nmos L=4u
+ W=16u AS=3.04p AD=3.04p PS=19.04u PD=19.04u
M$1199 GND|VGND|VSS Vrefcap$9 V_mem|v_mem$9 GND|VGND|VSS sg13_hv_nmos L=0.5u
+ W=1u AS=0.34p AD=0.34p PS=2.68u PD=2.68u
M$1200 \$1832 REQ|out|uio_out[7] Vrefcap$9 GND|VGND|VSS sg13_hv_nmos L=0.5u
+ W=1u AS=0.34p AD=0.34p PS=2.68u PD=2.68u
M$1201 VDD|VDPWR|ua[1]|v_ref VDD|VDPWR|ua[1]|v_ref VDD|VDPWR|ua[1]|v_ref
+ VDD|VDPWR|ua[1]|v_ref sg13_lv_pmos L=0.15u W=8u AS=3.92p AD=3.92p PS=23.84u
+ PD=23.84u
M$1202 VDD|VDPWR|ua[1]|v_ref SEL1|uio_in[1] \$59 VDD|VDPWR|ua[1]|v_ref
+ sg13_lv_pmos L=0.15u W=1u AS=0.49p AD=0.49p PS=2.98u PD=2.98u
M$1205 OUT|ua[0] \$59 IN1 VDD|VDPWR|ua[1]|v_ref sg13_lv_pmos L=0.15u W=8u
+ AS=2.24p AD=2.24p PS=13.48u PD=13.48u
M$1215 VDD|VDPWR|ua[1]|v_ref SEL0|uio_in[0] \$102 VDD|VDPWR|ua[1]|v_ref
+ sg13_lv_pmos L=0.15u W=1u AS=0.49p AD=0.49p PS=2.98u PD=2.98u
M$1218 OUT|ua[0] \$102 IN0 VDD|VDPWR|ua[1]|v_ref sg13_lv_pmos L=0.15u W=8u
+ AS=2.24p AD=2.24p PS=13.48u PD=13.48u
M$1227 \$1989 \$1988 VDD|VDPWR|ua[1]|v_ref VDD|VDPWR|ua[1]|v_ref sg13_lv_pmos
+ L=0.13u W=0.66u AS=0.2442p AD=0.4657125p PS=2.06u PD=2.54u
M$1228 VDD|VDPWR|ua[1]|v_ref \$1990 L_HI|uio_oe[7] VDD|VDPWR|ua[1]|v_ref
+ sg13_lv_pmos L=0.13u W=1.155u AS=0.4657125p AD=0.3927p PS=2.54u PD=2.99u
M$1229 \$1992 \$1991 VDD|VDPWR|ua[1]|v_ref VDD|VDPWR|ua[1]|v_ref sg13_lv_pmos
+ L=0.13u W=0.66u AS=0.2442p AD=0.4657125p PS=2.06u PD=2.54u
M$1230 VDD|VDPWR|ua[1]|v_ref \$1993 L_HI|uio_oe[6] VDD|VDPWR|ua[1]|v_ref
+ sg13_lv_pmos L=0.13u W=1.155u AS=0.4657125p AD=0.3927p PS=2.54u PD=2.99u
M$1231 \$1995 \$1994 VDD|VDPWR|ua[1]|v_ref VDD|VDPWR|ua[1]|v_ref sg13_lv_pmos
+ L=0.13u W=0.66u AS=0.2442p AD=0.4657125p PS=2.06u PD=2.54u
M$1232 VDD|VDPWR|ua[1]|v_ref \$1996 L_HI|uio_oe[5] VDD|VDPWR|ua[1]|v_ref
+ sg13_lv_pmos L=0.13u W=1.155u AS=0.4657125p AD=0.3927p PS=2.54u PD=2.99u
M$1233 VDD|VDPWR|ua[1]|v_ref \$2020 \$2020 VDD|VDPWR|ua[1]|v_ref sg13_lv_pmos
+ L=0.13u W=0.3u AS=0.326925p AD=0.102p PS=2.255u PD=1.28u
M$1234 VDD|VDPWR|ua[1]|v_ref \$1997 \$1998 VDD|VDPWR|ua[1]|v_ref sg13_lv_pmos
+ L=0.13u W=1.045u AS=0.326925p AD=0.3553p PS=2.255u PD=2.77u
M$1235 VDD|VDPWR|ua[1]|v_ref \$2021 \$2021 VDD|VDPWR|ua[1]|v_ref sg13_lv_pmos
+ L=0.13u W=0.3u AS=0.326925p AD=0.102p PS=2.255u PD=1.28u
M$1236 VDD|VDPWR|ua[1]|v_ref \$1999 \$2000 VDD|VDPWR|ua[1]|v_ref sg13_lv_pmos
+ L=0.13u W=1.045u AS=0.326925p AD=0.3553p PS=2.255u PD=2.77u
M$1237 VDD|VDPWR|ua[1]|v_ref \$2022 \$2022 VDD|VDPWR|ua[1]|v_ref sg13_lv_pmos
+ L=0.13u W=0.3u AS=0.326925p AD=0.102p PS=2.255u PD=1.28u
M$1238 VDD|VDPWR|ua[1]|v_ref \$2001 \$2002 VDD|VDPWR|ua[1]|v_ref sg13_lv_pmos
+ L=0.13u W=1.045u AS=0.326925p AD=0.3553p PS=2.255u PD=2.77u
M$1239 VDD|VDPWR|ua[1]|v_ref \$2023 \$2023 VDD|VDPWR|ua[1]|v_ref sg13_lv_pmos
+ L=0.13u W=0.3u AS=0.326925p AD=0.102p PS=2.255u PD=1.28u
M$1240 VDD|VDPWR|ua[1]|v_ref \$2003 \$2004 VDD|VDPWR|ua[1]|v_ref sg13_lv_pmos
+ L=0.13u W=1.045u AS=0.326925p AD=0.3553p PS=2.255u PD=2.77u
M$1241 VDD|VDPWR|ua[1]|v_ref \$2024 \$2024 VDD|VDPWR|ua[1]|v_ref sg13_lv_pmos
+ L=0.13u W=0.3u AS=0.326925p AD=0.102p PS=2.255u PD=1.28u
M$1242 VDD|VDPWR|ua[1]|v_ref \$2005 \$2006 VDD|VDPWR|ua[1]|v_ref sg13_lv_pmos
+ L=0.13u W=1.045u AS=0.326925p AD=0.3553p PS=2.255u PD=2.77u
M$1243 VDD|VDPWR|ua[1]|v_ref \$2025 \$2025 VDD|VDPWR|ua[1]|v_ref sg13_lv_pmos
+ L=0.13u W=0.3u AS=0.326925p AD=0.102p PS=2.255u PD=1.28u
M$1244 VDD|VDPWR|ua[1]|v_ref \$2007 \$2008 VDD|VDPWR|ua[1]|v_ref sg13_lv_pmos
+ L=0.13u W=1.045u AS=0.326925p AD=0.3553p PS=2.255u PD=2.77u
M$1245 VDD|VDPWR|ua[1]|v_ref \$2026 \$2026 VDD|VDPWR|ua[1]|v_ref sg13_lv_pmos
+ L=0.13u W=0.3u AS=0.326925p AD=0.102p PS=2.255u PD=1.28u
M$1246 VDD|VDPWR|ua[1]|v_ref \$2009 \$2010 VDD|VDPWR|ua[1]|v_ref sg13_lv_pmos
+ L=0.13u W=1.045u AS=0.326925p AD=0.3553p PS=2.255u PD=2.77u
M$1247 VDD|VDPWR|ua[1]|v_ref \$2027 \$2027 VDD|VDPWR|ua[1]|v_ref sg13_lv_pmos
+ L=0.13u W=0.3u AS=0.326925p AD=0.102p PS=2.255u PD=1.28u
M$1248 VDD|VDPWR|ua[1]|v_ref \$2011 \$2012 VDD|VDPWR|ua[1]|v_ref sg13_lv_pmos
+ L=0.13u W=1.045u AS=0.326925p AD=0.3553p PS=2.255u PD=2.77u
M$1249 VDD|VDPWR|ua[1]|v_ref \$2028 \$2028 VDD|VDPWR|ua[1]|v_ref sg13_lv_pmos
+ L=0.13u W=0.3u AS=0.326925p AD=0.102p PS=2.255u PD=1.28u
M$1250 VDD|VDPWR|ua[1]|v_ref \$2013 \$2014 VDD|VDPWR|ua[1]|v_ref sg13_lv_pmos
+ L=0.13u W=1.045u AS=0.326925p AD=0.3553p PS=2.255u PD=2.77u
M$1251 VDD|VDPWR|ua[1]|v_ref \$2029 \$2029 VDD|VDPWR|ua[1]|v_ref sg13_lv_pmos
+ L=0.13u W=0.3u AS=0.326925p AD=0.102p PS=2.255u PD=1.28u
M$1252 VDD|VDPWR|ua[1]|v_ref \$2015 \$2016 VDD|VDPWR|ua[1]|v_ref sg13_lv_pmos
+ L=0.13u W=1.045u AS=0.326925p AD=0.3553p PS=2.255u PD=2.77u
M$1253 Vb Vb Vb \$36 sg13_hv_pmos L=1u W=16u AS=3.64p AD=3.64p PS=23.64u
+ PD=23.64u
M$1255 Vb out out \$36 sg13_hv_pmos L=1u W=16u AS=3.04p AD=3.04p PS=19.04u
+ PD=19.04u
M$1257 Vb V_mem|inp_cm|v_mem Vm \$36 sg13_hv_pmos L=1u W=16u AS=3.04p AD=3.04p
+ PS=19.04u PD=19.04u
M$1265 Vb$1 Vb$1 Vb$1 \$36 sg13_hv_pmos L=1u W=16u AS=3.64p AD=3.64p PS=23.64u
+ PD=23.64u
M$1267 Vb$1 out$1 out$1 \$36 sg13_hv_pmos L=1u W=16u AS=3.04p AD=3.04p
+ PS=19.04u PD=19.04u
M$1269 Vb$1 Vrefcap|inp_cm Vm$1 \$36 sg13_hv_pmos L=1u W=16u AS=3.04p AD=3.04p
+ PS=19.04u PD=19.04u
M$1301 VDD|VDPWR|ua[1]|v_ref VDD|VDPWR|ua[1]|v_ref VDD|VDPWR|ua[1]|v_ref \$36
+ sg13_hv_pmos L=1u W=160u AS=36.4p AD=36.4p PS=236.4u PD=236.4u
M$1303 VDD|VDPWR|ua[1]|v_ref Vbias|ua[4] Vb \$36 sg13_hv_pmos L=1u W=160u
+ AS=30.4p AD=30.4p PS=190.4u PD=190.4u
M$1315 VDD|VDPWR|ua[1]|v_ref Vbias|ua[4] Vb$1 \$36 sg13_hv_pmos L=1u W=160u
+ AS=30.4p AD=30.4p PS=190.4u PD=190.4u
M$1541 Vb$2 Vb$2 Vb$2 \$267 sg13_hv_pmos L=1u W=16u AS=3.64p AD=3.64p PS=23.64u
+ PD=23.64u
M$1543 Vb$2 inn_cm|ua[3] I_in|out \$267 sg13_hv_pmos L=1u W=16u AS=3.04p
+ AD=3.04p PS=19.04u PD=19.04u
M$1545 Vb$2 inp_cm|ua[5] Vm$2 \$267 sg13_hv_pmos L=1u W=16u AS=3.04p AD=3.04p
+ PS=19.04u PD=19.04u
M$1553 VDD|VDPWR|ua[1]|v_ref VDD|VDPWR|ua[1]|v_ref VDD|VDPWR|ua[1]|v_ref \$267
+ sg13_hv_pmos L=2u W=50u AS=10.7p AD=11p PS=87.6u PD=90.2u
M$1581 VDD|VDPWR|ua[1]|v_ref VDD|VDPWR|ua[1]|v_ref I_in|out \$267 sg13_hv_pmos
+ L=2u W=8u AS=2.12p AD=2.12p PS=16.24u PD=16.24u
M$1582 I_in|out V_lk|ua[2] GND|VGND|VSS \$267 sg13_hv_pmos L=2u W=16u AS=3.04p
+ AD=3.04p PS=22.08u PD=22.08u
M$1584 I_in|out V_mem|inp_cm|v_mem V_mem|inp_cm|v_mem \$267 sg13_hv_pmos L=2u
+ W=16u AS=3.04p AD=3.04p PS=22.08u PD=22.08u
M$1601 VDD|VDPWR|ua[1]|v_ref VDD|VDPWR|ua[1]|v_ref Vfb|in|out \$267
+ sg13_hv_pmos L=2u W=2u AS=0.53p AD=0.53p PS=4.06u PD=4.06u
M$1602 Vfb|in|out V_mem|inp_cm|v_mem \$293 \$267 sg13_hv_pmos L=2u W=4u
+ AS=0.76p AD=0.76p PS=5.52u PD=5.52u
M$1607 VDD|VDPWR|ua[1]|v_ref VDD|VDPWR|ua[1]|v_ref VDD|VDPWR|ua[1]|v_ref \$267
+ sg13_hv_pmos L=1u W=28u AS=6.37p AD=6.37p PS=42.28u PD=42.28u
M$1609 VDD|VDPWR|ua[1]|v_ref Vbias|ua[4] I_in|out \$267 sg13_hv_pmos L=1u W=12u
+ AS=2.505p AD=2.505p PS=16.84u PD=16.84u
M$1613 VDD|VDPWR|ua[1]|v_ref Vbias|ua[4] Vb$2 \$267 sg13_hv_pmos L=1u W=16u
+ AS=3.34p AD=3.34p PS=21.34u PD=21.34u
M$1630 VDD|VDPWR|ua[1]|v_ref \$293 \$293 \$267 sg13_hv_pmos L=2u W=4u AS=0.76p
+ AD=0.76p PS=5.52u PD=5.52u
M$1635 VDD|VDPWR|ua[1]|v_ref Vfb|in|out in|out \$267 sg13_hv_pmos L=0.5u W=4u
+ AS=1.36p AD=1.36p PS=8.68u PD=8.68u
M$1636 VDD|VDPWR|ua[1]|v_ref in|out REQ|out|uo_out[0] \$267 sg13_hv_pmos L=0.5u
+ W=4u AS=1.36p AD=1.36p PS=8.68u PD=8.68u
M$1659 VDD|VDPWR|ua[1]|v_ref VDD|VDPWR|ua[1]|v_ref V_mem|inp_cm|v_mem \$267
+ sg13_hv_pmos L=2u W=1u AS=0.34p AD=0.19p PS=2.68u PD=1.38u
M$1660 V_mem|inp_cm|v_mem \$293 \$334 \$267 sg13_hv_pmos L=2u W=1u AS=0.19p